*Heading
** SENT Composite Specimen (Strict Topology)
*Preprint, echo=NO, model=NO, history=NO, contact=NO
*Part, name=Part-1
*Node
108, 0.000000, 1.392305, 0.0
109, 3.000000, 1.392305, 0.0
110, 6.000000, 1.392305, 0.0
111, 9.000000, 1.392305, 0.0
112, 12.000000, 1.392305, 0.0
113, 15.000000, 1.392305, 0.0
114, 18.000000, 1.392305, 0.0
115, 21.000000, 1.392305, 0.0
116, 24.000000, 1.392305, 0.0
117, 27.000000, 1.392305, 0.0
118, 30.000000, 1.392305, 0.0
119, 33.000000, 1.392305, 0.0
120, 36.000000, 1.392305, 0.0
121, 39.000000, 1.392305, 0.0
122, 42.000000, 1.392305, 0.0
123, 45.000000, 1.392305, 0.0
124, 48.000000, 1.392305, 0.0
125, 51.000000, 1.392305, 0.0
126, 54.000000, 1.392305, 0.0
127, 57.000000, 1.392305, 0.0
** ... 1186 like lines cut
*Element, type=B21
1, 1, 944
2, 1, 945
3, 2, 946
4, 2, 947
5, 3, 948
6, 3, 949
7, 4, 950
8, 4, 951
9, 5, 952
10, 5, 953
11, 6, 954
12, 6, 955
13, 7, 956
14, 7, 957
15, 8, 958
16, 8, 959
17, 9, 960
18, 9, 961
19, 10, 962
20, 10, 963
** ... 2927 like lines cut
*Elset, elset=Set-Core
1, 2, 3, 4, 5, 6, 7, 8, 9, 10, 11, 12, 13, 14, 15, 16
17, 18, 19, 20, 21, 22, 23, 24, 25, 26, 27, 28, 29, 30, 31, 32
33, 34, 35, 36, 37, 38, 39, 40, 41, 42, 43, 44, 45, 46, 47, 48
49, 50, 51, 52, 53, 54, 55, 56, 57, 58, 59, 60, 61, 62, 63, 64
65, 66, 67, 68, 69, 70, 71, 72, 73, 74, 75, 76, 77, 78, 79, 80
81, 82, 83, 84, 85, 86, 87, 88, 89, 90, 91, 92, 93, 94, 95, 96
97, 98, 99, 100, 101, 102, 103, 104, 105, 106, 108, 110, 111, 113, 114, 116
117, 119, 120, 122, 123, 125, 126, 128, 129, 131, 132, 134, 135, 137, 138, 140
141, 143, 144, 146, 147, 149, 150, 152, 153, 155, 156, 158, 159, 161, 162, 164
165, 167, 168, 169, 170, 171, 172, 173, 174, 175, 176, 177, 178, 179, 180, 181
182, 183, 184, 185, 186, 187, 188, 189, 190, 191, 192, 193, 194, 195, 196, 197
198, 199, 200, 201, 202, 203, 204, 205, 206, 207, 208, 209, 210, 211, 212, 213
214, 215, 216, 217, 218, 219, 220, 221, 222, 223, 224, 225, 226, 227, 228, 229
230, 231, 232, 233, 235, 237, 238, 240, 241, 243, 244, 246, 247, 249, 250, 252
253, 255, 256, 258, 259, 261, 262, 264, 265, 267, 268, 270, 271, 273, 274, 276
277, 279, 280, 282, 283, 285, 286, 288, 289, 291, 292, 294, 295, 296, 297, 298
299, 300, 301, 302, 303, 304, 305, 306, 307, 308, 309, 310, 311, 312, 313, 314
315, 316, 317, 318, 319, 320, 321, 322, 323, 324, 325, 326, 327, 328, 329, 330
331, 332, 333, 334, 335, 336, 337, 338, 339, 340, 341, 342, 343, 344, 345, 346
347, 348, 349, 350, 351, 352, 353, 354, 355, 356, 357, 358, 359, 360, 362, 364
** ... 134 like lines cut
*Elset, elset=Set-Filler
107, 109, 112, 115, 118, 121, 124, 127, 130, 133, 136, 139, 142, 145, 148, 151
154, 157, 160, 163, 166, 234, 236, 239, 242, 245, 248, 251, 254, 257, 260, 263
266, 269, 272, 275, 278, 281, 284, 287, 290, 293, 361, 363, 366, 369, 372, 375
378, 381, 384, 387, 390, 393, 396, 399, 402, 405, 408, 411, 414, 417, 420, 488
490, 493, 496, 499, 502, 505, 508, 511, 514, 517, 520, 523, 526, 529, 532, 535
538, 541, 544, 547, 615, 617, 620, 623, 626, 629, 632, 635, 638, 641, 644, 647
650, 653, 656, 659, 662, 665, 668, 671, 674, 742, 744, 747, 750, 753, 756, 759
762, 765, 768, 771, 774, 777, 780, 783, 786, 789, 792, 795, 798, 801, 869, 871
874, 877, 880, 883, 886, 889, 892, 895, 898, 901, 904, 907, 910, 913, 916, 919
922, 925, 928, 996, 998, 1001, 1004, 1007, 1010, 1013, 1016, 1019, 1022, 1025, 1028, 1031
1034, 1037, 1040, 1043, 1046, 1049, 1052, 1055, 1123, 1125, 1128, 1131, 1134, 1137, 1140, 1143
1146, 1149, 1152, 1155, 1158, 1161, 1164, 1167, 1170, 1173, 1176, 1179, 1182, 1250, 1252, 1255
1258, 1261, 1264, 1267, 1270, 1273, 1276, 1279, 1282, 1285, 1288, 1291, 1294, 1297, 1300, 1303
1306, 1309, 1377, 1379, 1382, 1385, 1388, 1391, 1394, 1397, 1400, 1403, 1406, 1409, 1412, 1415
1418, 1421, 1424, 1427, 1430, 1433, 1436, 1490, 1492, 1495, 1498, 1501, 1504, 1507, 1510, 1513
1516, 1519, 1522, 1525, 1528, 1531, 1534, 1537, 1540, 1543, 1546, 1549, 1617, 1619, 1622, 1625
1628, 1631, 1634, 1637, 1640, 1643, 1646, 1649, 1652, 1655, 1658, 1661, 1664, 1667, 1670, 1673
1676, 1744, 1746, 1749, 1752, 1755, 1758, 1761, 1764, 1767, 1770, 1773, 1776, 1779, 1782, 1785
1788, 1791, 1794, 1797, 1800, 1803, 1871, 1873, 1876, 1879, 1882, 1885, 1888, 1891, 1894, 1897
1900, 1903, 1906, 1909, 1912, 1915, 1918, 1921, 1924, 1927, 1930, 1998, 2000, 2003, 2006, 2009
** ... 11 like lines cut
*Elset, elset=Set_R_0p400
1, 2, 3, 4, 5, 6, 7, 8, 9, 10, 11, 12, 13, 14, 15, 16
17, 18, 19, 20, 21, 22, 23, 24, 25, 26, 27, 28, 29, 30, 31, 32
33, 34, 35, 36, 37, 38, 39, 40, 41, 42, 43, 44, 45, 46, 47, 48
49, 50, 51, 52, 53, 54, 55, 56, 57, 58, 59, 60, 61, 62, 63, 64
65, 66, 67, 68, 69, 70, 71, 72, 73, 74, 75, 76, 77, 78, 79, 80
81, 82, 83, 84, 85, 86, 87, 88, 89, 90, 91, 92, 93, 94, 95, 96
97, 98, 99, 100, 101, 102, 103, 104, 105, 106, 108, 110, 111, 113, 114, 116
117, 119, 120, 122, 123, 125, 126, 128, 129, 131, 132, 134, 135, 137, 138, 140
141, 143, 144, 146, 147, 149, 150, 152, 153, 155, 156, 158, 159, 161, 162, 164
165, 167, 168, 169, 170, 171, 172, 173, 174, 175, 176, 177, 178, 179, 180, 181
182, 183, 184, 185, 186, 187, 188, 189, 190, 191, 192, 193, 194, 195, 196, 197
198, 199, 200, 201, 202, 203, 204, 205, 206, 207, 208, 209, 210, 211, 212, 213
214, 215, 216, 217, 218, 219, 220, 221, 222, 223, 224, 225, 226, 227, 228, 229
230, 231, 232, 233, 235, 237, 238, 240, 241, 243, 244, 246, 247, 249, 250, 252
253, 255, 256, 258, 259, 261, 262, 264, 265, 267, 268, 270, 271, 273, 274, 276
277, 279, 280, 282, 283, 285, 286, 288, 289, 291, 292, 294, 295, 296, 297, 298
299, 300, 301, 302, 303, 304, 305, 306, 307, 308, 309, 310, 311, 312, 313, 314
315, 316, 317, 318, 319, 320, 321, 322, 323, 324, 325, 326, 327, 328, 329, 330
331, 332, 333, 334, 335, 336, 337, 338, 339, 340, 341, 342, 343, 344, 345, 346
347, 348, 349, 350, 351, 352, 353, 354, 355, 356, 357, 358, 359, 360, 362, 364
** ... 134 like lines cut
*Beam Section, elset=Set_R_0p400, material=Ti-6Al-4V, section=CIRC
0.400
0.,0.,-1.
*Elset, elset=Set_R_0p150
107, 109, 112, 115, 118, 121, 124, 127, 130, 133, 136, 139, 142, 145, 148, 151
154, 157, 160, 163, 166, 234, 236, 239, 242, 245, 248, 251, 254, 257, 260, 263
266, 269, 272, 275, 278, 281, 284, 287, 290, 293, 361, 363, 366, 369, 372, 375
378, 381, 384, 387, 390, 393, 396, 399, 402, 405, 408, 411, 414, 417, 420, 488
490, 493, 496, 499, 502, 505, 508, 511, 514, 517, 520, 523, 526, 529, 532, 535
538, 541, 544, 547, 615, 617, 620, 623, 626, 629, 632, 635, 638, 641, 644, 647
650, 653, 656, 659, 662, 665, 668, 671, 674, 742, 744, 747, 750, 753, 756, 759
762, 765, 768, 771, 774, 777, 780, 783, 786, 789, 792, 795, 798, 801, 869, 871
874, 877, 880, 883, 886, 889, 892, 895, 898, 901, 904, 907, 910, 913, 916, 919
922, 925, 928, 996, 998, 1001, 1004, 1007, 1010, 1013, 1016, 1019, 1022, 1025, 1028, 1031
1034, 1037, 1040, 1043, 1046, 1049, 1052, 1055, 1123, 1125, 1128, 1131, 1134, 1137, 1140, 1143
1146, 1149, 1152, 1155, 1158, 1161, 1164, 1167, 1170, 1173, 1176, 1179, 1182, 1250, 1252, 1255
1258, 1261, 1264, 1267, 1270, 1273, 1276, 1279, 1282, 1285, 1288, 1291, 1294, 1297, 1300, 1303
1306, 1309, 1377, 1379, 1382, 1385, 1388, 1391, 1394, 1397, 1400, 1403, 1406, 1409, 1412, 1415
1418, 1421, 1424, 1427, 1430, 1433, 1436, 1490, 1492, 1495, 1498, 1501, 1504, 1507, 1510, 1513
1516, 1519, 1522, 1525, 1528, 1531, 1534, 1537, 1540, 1543, 1546, 1549, 1617, 1619, 1622, 1625
1628, 1631, 1634, 1637, 1640, 1643, 1646, 1649, 1652, 1655, 1658, 1661, 1664, 1667, 1670, 1673
1676, 1744, 1746, 1749, 1752, 1755, 1758, 1761, 1764, 1767, 1770, 1773, 1776, 1779, 1782, 1785
1788, 1791, 1794, 1797, 1800, 1803, 1871, 1873, 1876, 1879, 1882, 1885, 1888, 1891, 1894, 1897
1900, 1903, 1906, 1909, 1912, 1915, 1918, 1921, 1924, 1927, 1930, 1998, 2000, 2003, 2006, 2009
** ... 11 like lines cut
*Beam Section, elset=Set_R_0p150, material=Ti-6Al-4V, section=CIRC
0.150
0.,0.,-1.
*Nset, nset=Set-Top
1575, 1576, 1577, 1578, 1579, 1580, 1581, 1582, 1583, 1584, 1585, 1586, 1587, 1588, 1589, 1590
1591, 1592, 1593, 1594, 1595, 1596, 1597, 1598, 1599, 1600, 1601, 1602, 1603, 1604, 1605, 1606
1607, 1608, 1609, 1610, 1611, 1612, 1614, 1615
*Nset, nset=Set-Bottom
1355, 1356, 1357, 1358, 1359, 1360, 1361, 1362, 1363, 1364, 1365, 1366, 1367, 1368, 1369, 1370
1371, 1372, 1373, 1374, 1375, 1376, 1377, 1378, 1379, 1380, 1381, 1382, 1383, 1384, 1385, 1386
1387, 1388, 1389, 1390, 1391, 1392
*End Part
**
*Assembly, name=Assembly
*Instance, name=Lattice, part=Part-1
*End Instance
*End Assembly
**
*Material, name=Ti-6Al-4V
*Density
4.43e-09,
*Elastic
110000., 0.31
*Plastic, hardening=JOHNSON COOK
1098., 1092., 0.33, 0.014, 1.1, 1605., 25.
*Damage Initiation, criterion=JOHNSON COOK
-0.09, 0.27, 0.48, 0.014, 3.87, 1605., 25., 1.
*Damage Evolution, type=ENERGY
86.,
**
*Step, name=Load, nlgeom=YES
*Dynamic, Explicit
, 0.05
*Boundary
Lattice.Set-Bottom, 1, 6, 0.0
Lattice.Set-Top, 1, 1, 0.0
Lattice.Set-Top, 3, 6, 0.0
*Boundary, type=VELOCITY
Lattice.Set-Top, 2, 2, 100.0
*Output, field, variable=PRESELECT, number interval=50
*End Step
